9
Atom	X	Y	Z
C	0.0000000	0.8653620	0.0000000
C	0.7494260	-0.4326810	0.0000000
C	-0.7494260	-0.4326810	0.0000000
H	0.0000000	1.4459740	0.9081490
H	1.2522500	-0.7229870	0.9081490
H	-1.2522500	-0.7229870	0.9081490
H	0.0000000	1.4459740	-0.9081490
H	1.2522500	-0.7229870	-0.9081490
H	-1.2522500	-0.7229870	-0.9081490


