17
Atom	X	Y	Z
C	0.0000000	0.0000000	0.0000000
C	0.8828310	0.8828310	0.8828310
C	-0.8828310	-0.8828310	0.8828310
C	-0.8828310	0.8828310	-0.8828310
C	0.8828310	-0.8828310	-0.8828310
H	1.5252610	0.2752190	1.5252610
H	1.5252610	1.5252610	0.2752190
H	0.2752190	1.5252610	1.5252610
H	-1.5252610	-1.5252610	0.2752190
H	-0.2752190	-1.5252610	1.5252610
H	-1.5252610	-0.2752190	1.5252610
H	-1.5252610	0.2752190	-1.5252610
H	-1.5252610	1.5252610	-0.2752190
H	-0.2752190	1.5252610	-1.5252610
H	1.5252610	-1.5252610	-0.2752190
H	0.2752190	-1.5252610	-1.5252610
H	1.5252610	-0.2752190	-1.5252610

